Version 4
SHEET 1 1260 680
WIRE 560 64 80 64
WIRE 768 96 688 96
WIRE 560 128 480 128
WIRE 960 128 880 128
WIRE 160 144 128 144
WIRE 768 160 720 160
WIRE 1120 160 1072 160
WIRE 80 176 80 64
WIRE 80 176 -16 176
WIRE 160 176 80 176
WIRE 560 176 288 176
WIRE 960 192 912 192
WIRE 128 208 128 144
WIRE 160 208 128 208
WIRE 720 208 720 160
WIRE 720 208 688 208
WIRE 128 240 128 208
WIRE 560 240 480 240
WIRE 80 288 80 176
WIRE 160 288 80 288
WIRE 560 288 288 288
WIRE 912 320 912 192
WIRE 912 320 688 320
WIRE 560 352 480 352
FLAG 1120 160 OUT
IOPIN 1120 160 Out
FLAG 480 128 K_P
IOPIN 480 128 In
FLAG 480 240 K_I
IOPIN 480 240 In
FLAG 480 352 K_D
IOPIN 480 352 In
FLAG 128 240 0
FLAG -16 176 IN
IOPIN -16 176 In
SYMBOL integrator_module 304 160 R0
SYMATTR InstName X1
SYMBOL derivator_module 256 272 R0
SYMATTR InstName X2
SYMATTR SpiceLine k=0
SYMBOL multiplier_module 656 80 R0
SYMATTR InstName X3
SYMBOL multiplier_module 656 192 R0
SYMATTR InstName X4
SYMBOL multiplier_module 656 304 R0
SYMATTR InstName X5
SYMBOL sum_module 848 112 R0
SYMATTR InstName X6
SYMBOL sum_module 1040 144 R0
SYMATTR InstName X7
