Version 4
SHEET 1 2148 680
WIRE 1312 112 992 112
WIRE 1520 144 1440 144
WIRE 1072 176 1040 176
WIRE 1312 176 1280 176
WIRE 1712 176 1632 176
WIRE 768 192 560 192
WIRE 1072 208 1024 208
WIRE 1520 208 1472 208
WIRE 1872 208 1824 208
WIRE 992 224 992 112
WIRE 992 224 880 224
WIRE 1024 224 1024 208
WIRE 1024 224 992 224
WIRE 1312 224 1200 224
WIRE 1040 240 1040 176
WIRE 1072 240 1040 240
WIRE 1712 240 1664 240
WIRE 608 256 560 256
WIRE 768 256 736 256
WIRE 1472 256 1472 208
WIRE 1472 256 1440 256
WIRE 1072 272 944 272
WIRE 1040 288 1040 240
WIRE 1312 288 1280 288
WIRE 992 336 992 224
WIRE 1072 336 992 336
WIRE 1312 336 1200 336
WIRE 1664 368 1664 240
WIRE 1664 368 1440 368
WIRE 1312 400 1280 400
FLAG 1872 208 OUT
IOPIN 1872 208 Out
FLAG 1280 176 K_P
IOPIN 1280 176 In
FLAG 1280 288 K_I
IOPIN 1280 288 In
FLAG 1280 400 K_D
IOPIN 1280 400 In
FLAG 1040 288 0
FLAG 560 192 IN+
IOPIN 560 192 In
FLAG 560 256 IN-
IOPIN 560 256 In
FLAG 944 272 WU
IOPIN 944 272 In
SYMBOL derivator_module 1168 320 R0
SYMATTR InstName X2
SYMATTR SpiceLine k=0
SYMBOL multiplier_module 1408 128 R0
SYMATTR InstName X3
SYMBOL multiplier_module 1408 240 R0
SYMATTR InstName X4
SYMBOL multiplier_module 1408 352 R0
SYMATTR InstName X5
SYMBOL sum_module 1600 160 R0
SYMATTR InstName X6
SYMBOL sum_module 1792 192 R0
SYMATTR InstName X7
SYMBOL sum_module 848 208 R0
SYMATTR InstName X8
SYMBOL neg_module 704 240 R0
SYMATTR InstName X9
SYMBOL integrator_WU_module 1216 192 R0
SYMATTR InstName X1
