Version 4
SHEET 1 2124 680
WIRE 1456 112 976 112
WIRE 1664 144 1584 144
WIRE 1456 176 1376 176
WIRE 1856 176 1776 176
WIRE 768 192 560 192
WIRE 1056 192 1024 192
WIRE 1664 208 1616 208
WIRE 2016 208 1968 208
WIRE 976 224 976 112
WIRE 976 224 880 224
WIRE 1056 224 976 224
WIRE 1456 224 1184 224
WIRE 1856 240 1808 240
WIRE 608 256 560 256
WIRE 768 256 736 256
WIRE 1024 256 1024 192
WIRE 1056 256 1024 256
WIRE 1616 256 1616 208
WIRE 1616 256 1584 256
WIRE 1024 288 1024 256
WIRE 1456 288 1376 288
WIRE 976 336 976 224
WIRE 1056 336 976 336
WIRE 1456 336 1184 336
WIRE 1808 368 1808 240
WIRE 1808 368 1584 368
WIRE 1456 400 1376 400
FLAG 2016 208 OUT
IOPIN 2016 208 Out
FLAG 1376 176 K_P
IOPIN 1376 176 In
FLAG 1376 288 K_I
IOPIN 1376 288 In
FLAG 1376 400 K_D
IOPIN 1376 400 In
FLAG 1024 288 0
FLAG 560 192 IN+
IOPIN 560 192 In
FLAG 560 256 IN-
IOPIN 560 256 In
SYMBOL integrator_module 1200 208 R0
SYMATTR InstName X1
SYMBOL derivator_module 1152 320 R0
SYMATTR InstName X2
SYMATTR SpiceLine k=0
SYMBOL multiplier_module 1552 128 R0
SYMATTR InstName X3
SYMBOL multiplier_module 1552 240 R0
SYMATTR InstName X4
SYMBOL multiplier_module 1552 352 R0
SYMATTR InstName X5
SYMBOL sum_module 1744 160 R0
SYMATTR InstName X6
SYMBOL sum_module 1936 192 R0
SYMATTR InstName X7
SYMBOL sum_module 848 208 R0
SYMATTR InstName X8
SYMBOL neg_module 704 240 R0
SYMATTR InstName X9
