Version 4
SHEET 1 2208 680
WIRE -16 -336 -64 -336
WIRE 112 -336 64 -336
WIRE 208 -336 112 -336
WIRE 640 -336 496 -336
WIRE 752 -336 640 -336
WIRE -64 -288 -64 -336
WIRE 496 -288 496 -336
WIRE 112 -272 112 -336
WIRE 640 -272 640 -336
WIRE -64 -160 -64 -208
WIRE 112 -160 112 -208
WIRE 496 -160 496 -208
WIRE 640 -160 640 -208
WIRE 128 -48 64 -48
WIRE 160 -48 128 -48
WIRE -64 -32 -128 -32
WIRE 368 -32 288 -32
WIRE 448 -32 368 -32
WIRE 128 -16 64 -16
WIRE 160 -16 128 -16
WIRE 608 -16 576 -16
WIRE 640 -16 608 -16
WIRE 1072 -16 1008 -16
WIRE -64 0 -128 0
WIRE 368 0 288 0
WIRE 448 0 368 0
WIRE 832 0 768 0
WIRE 880 0 832 0
WIRE 128 16 64 16
WIRE 160 16 128 16
WIRE 608 16 576 16
WIRE 640 16 608 16
WIRE 1072 16 1008 16
WIRE 416 32 384 32
WIRE 448 32 416 32
WIRE 832 32 768 32
WIRE 880 32 832 32
WIRE 640 48 608 48
WIRE 1072 48 1008 48
WIRE 416 96 416 32
WIRE 608 96 608 48
WIRE 608 96 416 96
FLAG 640 -160 0
FLAG 128 -48 U
FLAG 128 -16 V
FLAG 128 16 W
FLAG 368 -32 ALFA
FLAG 368 0 BETA
FLAG 608 -16 D
FLAG 608 16 Q
FLAG 752 -336 THETA
FLAG 384 32 THETA
FLAG 832 0 ALFA1
FLAG 832 32 BETA1
FLAG 1072 -16 U1
FLAG 1072 16 V1
FLAG 1072 48 W1
FLAG 112 -160 0
FLAG 208 -336 AMPLITUDE
FLAG -128 -32 AMPLITUDE
FLAG -128 0 THETA
FLAG 496 -160 0
FLAG -64 -160 0
SYMBOL clarke 256 -32 R0
SYMATTR InstName X1
SYMBOL park 544 -16 R0
SYMATTR InstName X2
SYMBOL bi 496 -208 R180
WINDOW 0 24 80 Left 2
WINDOW 3 -55 -84 Left 2
SYMATTR InstName B4
SYMATTR Value I=time/100
SYMBOL cap 624 -272 R0
WINDOW 3 31 56 Left 2
SYMATTR Value 1µ IC=0
SYMATTR InstName C1
SYMBOL inv_park 736 0 R0
SYMATTR InstName X3
SYMBOL inv_clarke 976 0 R0
SYMATTR InstName X4
SYMBOL cap 96 -272 R0
SYMATTR InstName C2
SYMATTR Value 1µ IC=0
SYMBOL res 80 -352 R90
WINDOW 0 0 56 VBottom 2
WINDOW 3 32 56 VTop 2
SYMATTR InstName R1
SYMATTR Value 10K
SYMBOL 3ph_gen 32 -32 R0
SYMATTR InstName X5
SYMBOL bv -64 -304 R0
WINDOW 3 -26 188 Left 2
SYMATTR InstName B1
SYMATTR Value V=IF(TIME<50m,TIME*1000/5,10)
TEXT 120 480 Left 2 !.tran 150m
