Version 4
SHEET 1 880 680
WIRE 144 112 -144 112
WIRE -144 144 -144 112
WIRE 144 144 96 144
WIRE 320 160 272 160
WIRE 144 176 96 176
WIRE 144 208 96 208
WIRE -144 256 -144 224
FLAG -144 256 0
SYMBOL PID 240 112 R0
SYMATTR InstName X1
SYMBOL constant_module 48 128 R0
SYMATTR InstName X2
SYMATTR SpiceLine k=1
SYMBOL constant_module 48 160 R0
SYMATTR InstName X3
SYMATTR SpiceLine k=0
SYMBOL constant_module 48 192 R0
SYMATTR InstName X4
SYMATTR SpiceLine k=0
SYMBOL voltage -144 128 R0
WINDOW 3 26 111 Left 2
WINDOW 123 0 0 Left 0
WINDOW 39 0 0 Left 0
SYMATTR InstName V1
SYMATTR Value PULSE(0 1 1 1 1 4 11)
TEXT -178 280 Left 2 !.tran 11
