Version 4
SHEET 1 2208 680
WIRE -352 -336 -384 -336
WIRE -240 -336 -272 -336
WIRE -144 -336 -240 -336
WIRE -384 -288 -384 -336
WIRE -240 -272 -240 -336
WIRE -384 -160 -384 -208
WIRE -240 -160 -240 -208
WIRE 128 -48 64 -48
WIRE 160 -48 128 -48
WIRE -64 -32 -128 -32
WIRE 368 -32 288 -32
WIRE 448 -32 368 -32
WIRE 128 -16 64 -16
WIRE 160 -16 128 -16
WIRE 608 -16 576 -16
WIRE 640 -16 608 -16
WIRE 1072 -16 1008 -16
WIRE -64 0 -128 0
WIRE 368 0 288 0
WIRE 448 0 368 0
WIRE 832 0 768 0
WIRE 880 0 832 0
WIRE 128 16 64 16
WIRE 160 16 128 16
WIRE 608 16 576 16
WIRE 640 16 608 16
WIRE 1072 16 1008 16
WIRE 416 32 384 32
WIRE 448 32 416 32
WIRE 832 32 768 32
WIRE 880 32 832 32
WIRE 640 48 608 48
WIRE 1072 48 1008 48
WIRE -304 80 -384 80
WIRE -240 80 -304 80
WIRE 416 80 416 32
WIRE 608 80 608 48
WIRE 608 80 416 80
WIRE -384 112 -384 80
WIRE -240 112 -240 80
WIRE -384 240 -384 192
WIRE -240 240 -240 176
FLAG -240 240 0
FLAG 128 -48 U
FLAG 128 -16 V
FLAG 128 16 W
FLAG 368 -32 ALFA
FLAG 368 0 BETA
FLAG 608 -16 D
FLAG 608 16 Q
FLAG -304 80 THETA
FLAG 384 32 THETA
FLAG 832 0 ALFA1
FLAG 832 32 BETA1
FLAG 1072 -16 U1
FLAG 1072 16 V1
FLAG 1072 48 W1
FLAG -384 -160 0
FLAG -240 -160 0
FLAG -144 -336 AMPLITUDE
FLAG -128 -32 AMPLITUDE
FLAG -128 0 THETA
FLAG -384 240 0
SYMBOL clarke 256 -32 R0
SYMATTR InstName X1
SYMBOL park 544 -16 R0
SYMATTR InstName X2
SYMBOL bi -384 192 R180
WINDOW 0 24 80 Left 2
WINDOW 3 -80 -3 Left 2
SYMATTR InstName B4
SYMATTR Value I=1m
SYMBOL cap -256 112 R0
WINDOW 3 31 56 Left 2
SYMATTR Value 1µ IC=0
SYMATTR InstName C1
SYMBOL inv_park 736 0 R0
SYMATTR InstName X3
SYMBOL inv_clarke 976 0 R0
SYMATTR InstName X4
SYMBOL voltage -384 -304 R0
WINDOW 123 0 0 Left 0
WINDOW 39 0 0 Left 0
SYMATTR InstName V1
SYMATTR Value 10
SYMBOL cap -256 -272 R0
SYMATTR InstName C2
SYMATTR Value 1µ IC=0
SYMBOL res -256 -352 R90
WINDOW 0 0 56 VBottom 2
WINDOW 3 32 56 VTop 2
SYMATTR InstName R1
SYMATTR Value 10K
SYMBOL 3ph_gen 32 -32 R0
SYMATTR InstName X5
TEXT 120 480 Left 2 !.tran 100M
